*SPEF "ieee 1481-1999"
*DESIGN "iiitb_ringcounter"
*DATE "11:11:11 Fri 11 11, 1111"
*VENDOR "OpenRCX"
*PROGRAM "Parallel Extraction"
*VERSION "1.0"
*DESIGN_FLOW "NAME_SCOPE LOCAL" "PIN_CAP NONE"
*DIVIDER /
*DELIMITER :
*BUS_DELIMITER []
*T_UNIT 1 NS
*C_UNIT 1 PF
*R_UNIT 1 OHM
*L_UNIT 1 HENRY

*NAME_MAP
*3 clock
*4 q[0]
*5 q[1]
*6 q[2]
*7 q[3]
*8 reset
*9 _00_
*10 _01_
*11 _02_
*12 _03_
*13 _04_
*14 _05_
*15 _06_
*16 _07_
*17 clknet_0_clock
*18 clknet_1_0__leaf_clock
*19 clknet_1_1__leaf_clock
*20 net1
*21 net2
*22 net3
*23 net4
*24 net5
*25 FILLER_0_11
*26 FILLER_0_23
*27 FILLER_0_27
*28 FILLER_0_29
*29 FILLER_0_3
*30 FILLER_0_41
*31 FILLER_0_47
*32 FILLER_0_54
*33 FILLER_0_57
*34 FILLER_1_15
*35 FILLER_1_3
*36 FILLER_1_36
*37 FILLER_1_47
*38 FILLER_1_55
*39 FILLER_1_57
*40 FILLER_2_15
*41 FILLER_2_21
*42 FILLER_2_25
*43 FILLER_2_29
*44 FILLER_2_3
*45 FILLER_2_37
*46 FILLER_2_45
*47 FILLER_2_53
*48 FILLER_2_59
*49 FILLER_3_27
*50 FILLER_3_3
*51 FILLER_3_48
*52 FILLER_3_57
*53 FILLER_3_9
*54 FILLER_4_26
*55 FILLER_4_29
*56 FILLER_4_3
*57 FILLER_4_48
*58 FILLER_4_55
*59 FILLER_5_22
*60 FILLER_5_28
*61 FILLER_5_3
*62 FILLER_5_49
*63 FILLER_5_55
*64 FILLER_5_57
*65 FILLER_6_25
*66 FILLER_6_29
*67 FILLER_6_3
*68 FILLER_6_40
*69 FILLER_6_46
*70 FILLER_6_50
*71 FILLER_6_58
*72 FILLER_7_15
*73 FILLER_7_26
*74 FILLER_7_3
*75 FILLER_7_38
*76 FILLER_7_50
*77 FILLER_7_57
*78 FILLER_8_15
*79 FILLER_8_27
*80 FILLER_8_29
*81 FILLER_8_3
*82 FILLER_8_41
*83 FILLER_8_53
*84 FILLER_9_16
*85 FILLER_9_29
*86 FILLER_9_3
*87 FILLER_9_41
*88 FILLER_9_47
*89 FILLER_9_54
*90 FILLER_9_57
*91 FILLER_9_9
*92 PHY_0
*93 PHY_1
*94 PHY_10
*95 PHY_11
*96 PHY_12
*97 PHY_13
*98 PHY_14
*99 PHY_15
*100 PHY_16
*101 PHY_17
*102 PHY_18
*103 PHY_19
*104 PHY_2
*105 PHY_3
*106 PHY_4
*107 PHY_5
*108 PHY_6
*109 PHY_7
*110 PHY_8
*111 PHY_9
*112 TAP_20
*113 TAP_21
*114 TAP_22
*115 TAP_23
*116 TAP_24
*117 TAP_25
*118 TAP_26
*119 TAP_27
*120 TAP_28
*121 TAP_29
*122 TAP_30
*123 TAP_31
*124 _08_
*125 _09_
*126 _10_
*127 _11_
*128 _12_
*129 _13_
*130 _14_
*131 _15_
*132 _16_
*133 _17_
*134 _18_
*135 _19_
*136 clkbuf_0_clock
*137 clkbuf_1_0__f_clock
*138 clkbuf_1_1__f_clock
*139 input1
*140 output2
*141 output3
*142 output4
*143 output5

*PORTS
clock I
q[0] O
q[1] O
q[2] O
q[3] O
reset I

*D_NET *3 0.00176483
*CONN
*P clock I
*I *136:A I *D sky130_fd_sc_hd__clkbuf_16
*CAP
1 clock 0.000882415
2 *136:A 0.000882415
3 *136:A *130:A_N 0
4 *136:A *131:A 0
5 *136:A *142:A 0
*RES
1 clock *136:A 27.7931 
*END

*D_NET *4 0.000633784
*CONN
*P q[0] O
*I *140:X O *D sky130_fd_sc_hd__buf_4
*CAP
1 q[0] 0.000316892
2 *140:X 0.000316892
*RES
1 *140:X q[0] 20.9964 
*END

*D_NET *5 0.00139374
*CONN
*P q[1] O
*I *141:X O *D sky130_fd_sc_hd__buf_4
*CAP
1 q[1] 0.000696869
2 *141:X 0.000696869
*RES
1 *141:X q[1] 28.925 
*END

*D_NET *6 0.000967272
*CONN
*P q[2] O
*I *142:X O *D sky130_fd_sc_hd__buf_4
*CAP
1 q[2] 0.000483636
2 *142:X 0.000483636
*RES
1 *142:X q[2] 24.7821 
*END

*D_NET *7 0.00168639
*CONN
*P q[3] O
*I *143:X O *D sky130_fd_sc_hd__buf_4
*CAP
1 q[3] 0.000843195
2 *143:X 0.000843195
*RES
1 *143:X q[3] 32.175 
*END

*D_NET *8 0.000455242
*CONN
*P reset I
*I *139:A I *D sky130_fd_sc_hd__buf_1
*CAP
1 reset 0.000227621
2 *139:A 0.000227621
*RES
1 reset *139:A 18.267 
*END

*D_NET *9 0.00109171
*CONN
*I *135:D I *D sky130_fd_sc_hd__dfxtp_2
*I *131:X O *D sky130_fd_sc_hd__buf_1
*CAP
1 *135:D 0.000545854
2 *131:X 0.000545854
3 *135:D *128:B 0
*RES
1 *131:X *135:D 39.5152 
*END

*D_NET *10 0.0011114
*CONN
*I *132:D I *D sky130_fd_sc_hd__dfxtp_2
*I *125:X O *D sky130_fd_sc_hd__buf_1
*CAP
1 *132:D 0.000555698
2 *125:X 0.000555698
3 *132:D *125:A 0
*RES
1 *125:X *132:D 39.7295 
*END

*D_NET *11 0.0012967
*CONN
*I *133:D I *D sky130_fd_sc_hd__dfxtp_2
*I *127:X O *D sky130_fd_sc_hd__buf_1
*CAP
1 *133:D 0.000648351
2 *127:X 0.000648351
3 *133:D *127:A 0
4 *133:D *128:B 0
5 *133:D *135:CLK 0
6 *133:D *24:8 0
*RES
1 *127:X *133:D 32.1937 
*END

*D_NET *12 0.000395908
*CONN
*I *134:D I *D sky130_fd_sc_hd__dfxtp_2
*I *129:X O *D sky130_fd_sc_hd__buf_1
*CAP
1 *134:D 0.000197954
2 *129:X 0.000197954
*RES
1 *129:X *134:D 31.8902 
*END

*D_NET *13 0.000405567
*CONN
*I *125:A I *D sky130_fd_sc_hd__buf_1
*I *124:X O *D sky130_fd_sc_hd__or2_2
*CAP
1 *125:A 0.000202783
2 *124:X 0.000202783
3 *132:D *125:A 0
*RES
1 *124:X *125:A 22.8321 
*END

*D_NET *14 0.000817556
*CONN
*I *127:A I *D sky130_fd_sc_hd__buf_1
*I *126:X O *D sky130_fd_sc_hd__and2b_2
*CAP
1 *127:A 0.000408778
2 *126:X 0.000408778
3 *127:A *24:8 0
4 *133:D *127:A 0
*RES
1 *126:X *127:A 36.4393 
*END

*D_NET *15 0.000825564
*CONN
*I *129:A I *D sky130_fd_sc_hd__buf_1
*I *128:X O *D sky130_fd_sc_hd__and2b_2
*CAP
1 *129:A 0.000412782
2 *128:X 0.000412782
3 *129:A *20:7 0
4 *129:A *20:16 0
*RES
1 *128:X *129:A 36.35 
*END

*D_NET *16 0.000684593
*CONN
*I *131:A I *D sky130_fd_sc_hd__buf_1
*I *130:X O *D sky130_fd_sc_hd__and2b_2
*CAP
1 *131:A 0.000342296
2 *130:X 0.000342296
3 *131:A *142:A 0
4 *136:A *131:A 0
*RES
1 *130:X *131:A 35.1 
*END

*D_NET *17 0.00183333
*CONN
*I *138:A I *D sky130_fd_sc_hd__clkbuf_16
*I *137:A I *D sky130_fd_sc_hd__clkbuf_16
*I *136:X O *D sky130_fd_sc_hd__clkbuf_16
*CAP
1 *138:A 0.000258922
2 *137:A 0.000474639
3 *136:X 0.000183104
4 *17:7 0.000916664
*RES
1 *136:X *17:7 17.6214 
2 *17:7 *137:A 24.4786 
3 *17:7 *138:A 19.3714 
*END

*D_NET *18 0.000775809
*CONN
*I *132:CLK I *D sky130_fd_sc_hd__dfxtp_2
*I *134:CLK I *D sky130_fd_sc_hd__dfxtp_2
*I *137:X O *D sky130_fd_sc_hd__clkbuf_16
*CAP
1 *132:CLK 0.000104386
2 *134:CLK 0
3 *137:X 0.000283518
4 *18:10 0.000387904
*RES
1 *137:X *18:10 24.55 
2 *18:10 *134:CLK 9.3 
3 *18:10 *132:CLK 11.4786 
*END

*D_NET *19 0.00124715
*CONN
*I *135:CLK I *D sky130_fd_sc_hd__dfxtp_2
*I *133:CLK I *D sky130_fd_sc_hd__dfxtp_2
*I *138:X O *D sky130_fd_sc_hd__clkbuf_16
*CAP
1 *135:CLK 0.000121071
2 *133:CLK 0
3 *138:X 0.000502504
4 *19:11 0.000623575
5 *19:11 *128:B 0
6 *133:D *135:CLK 0
*RES
1 *138:X *19:11 29.0857 
2 *19:11 *133:CLK 9.3 
3 *19:11 *135:CLK 11.8893 
*END

*D_NET *20 0.00291413
*CONN
*I *128:A_N I *D sky130_fd_sc_hd__and2b_2
*I *124:B I *D sky130_fd_sc_hd__or2_2
*I *130:A_N I *D sky130_fd_sc_hd__and2b_2
*I *126:A_N I *D sky130_fd_sc_hd__and2b_2
*I *139:X O *D sky130_fd_sc_hd__buf_1
*CAP
1 *128:A_N 0.000262389
2 *124:B 0.000144293
3 *130:A_N 0.000242142
4 *126:A_N 0
5 *139:X 0.000377759
6 *20:16 0.000816916
7 *20:7 0.00107063
8 *128:A_N *128:B 0
9 *20:7 *126:B 0
10 *129:A *20:7 0
11 *129:A *20:16 0
12 *136:A *130:A_N 0
*RES
1 *139:X *20:7 17.2464 
2 *20:7 *126:A_N 9.3 
3 *20:7 *20:16 14.0893 
4 *20:16 *130:A_N 18.8536 
5 *20:16 *124:B 16.9964 
6 *20:7 *128:A_N 23.9607 
*END

*D_NET *21 0.00107852
*CONN
*I *126:B I *D sky130_fd_sc_hd__and2b_2
*I *140:A I *D sky130_fd_sc_hd__buf_4
*I *132:Q O *D sky130_fd_sc_hd__dfxtp_2
*CAP
1 *126:B 0.000143745
2 *140:A 0.000271596
3 *132:Q 0.000123919
4 *21:8 0.00053926
5 *20:7 *126:B 0
*RES
1 *132:Q *21:8 16.4964 
2 *21:8 *140:A 19.925 
3 *21:8 *126:B 16.8 
*END

*D_NET *22 0.00272141
*CONN
*I *128:B I *D sky130_fd_sc_hd__and2b_2
*I *141:A I *D sky130_fd_sc_hd__buf_4
*I *133:Q O *D sky130_fd_sc_hd__dfxtp_2
*CAP
1 *128:B 0.000954345
2 *141:A 0.00040636
3 *133:Q 0
4 *22:4 0.0013607
5 *128:A_N *128:B 0
6 *133:D *128:B 0
7 *135:D *128:B 0
8 *19:11 *128:B 0
*RES
1 *133:Q *22:4 9.3 
2 *22:4 *141:A 27.5321 
3 *22:4 *128:B 38.8 
*END

*D_NET *23 0.00159
*CONN
*I *142:A I *D sky130_fd_sc_hd__buf_4
*I *130:B I *D sky130_fd_sc_hd__and2b_2
*I *134:Q O *D sky130_fd_sc_hd__dfxtp_2
*CAP
1 *142:A 0.000505113
2 *130:B 0
3 *134:Q 0.000289886
4 *23:8 0.000794999
5 *131:A *142:A 0
6 *136:A *142:A 0
*RES
1 *134:Q *23:8 20.1571 
2 *23:8 *130:B 13.8 
3 *23:8 *142:A 25.1929 
*END

*D_NET *24 0.00197649
*CONN
*I *143:A I *D sky130_fd_sc_hd__buf_4
*I *124:A I *D sky130_fd_sc_hd__or2_2
*I *135:Q O *D sky130_fd_sc_hd__dfxtp_2
*CAP
1 *143:A 0.000559215
2 *124:A 0
3 *135:Q 0.000429032
4 *24:8 0.000988246
5 *127:A *24:8 0
6 *133:D *24:8 0
*RES
1 *135:Q *24:8 23.2107 
2 *24:8 *124:A 13.8 
3 *24:8 *143:A 26.1571 
*END
